opendss/13positivebus/ieee13nodeckt_Power_seq_kVA.txt

SYMMETRICAL COMPONENT POWERS BY CIRCUIT ELEMENT (first 3 phases)                                     Excess Power

Element                      Term    P1(kW)   Q1(kvar)       P2         Q2      P0      Q0       P_Norm      Q_Norm     P_Emerg    Q_Emerg

"Vsource.SOURCE"              1     -401.8     -275.2        0.0        0.0     0.0     0.0
"Vsource.SOURCE"              2        0.0        0.0        0.0        0.0     0.0     0.0
"Line.650632"                 1      401.8      275.2        0.0        0.0     0.0     0.0        0.0        0.0        0.0        0.0
"Line.650632"                 2     -400.9     -272.4        0.0        0.0     0.0     0.0
"Line.632670"                 1       88.4     -353.7        0.0        0.0     0.0     0.0        0.0        0.0        0.0        0.0
"Line.632670"                 2      -88.3      354.2        0.0        0.0     0.0     0.0
"Line.670671"                 1       70.9     -364.4        0.0        0.0     0.0     0.0        0.0        0.0        0.0        0.0
"Line.670671"                 2      -70.6      365.5        0.0        0.0     0.0     0.0
"Line.671680"                 1       11.8        6.7        0.0        0.0     0.0     0.0        0.0        0.0        0.0        0.0
"Line.671680"                 2      -11.8       -6.7        0.0        0.0     0.0     0.0
"Line.632633"                 1     -264.6      239.0        0.0        0.0     0.0     0.0        0.0        0.0        0.0        0.0
"Line.632633"                 2      265.0     -238.6        0.0        0.0     0.0     0.0
"Line.632645"                 1      404.4      260.1        0.0        0.0     0.0     0.0        0.0        0.0        0.0        0.0
"Line.632645"                 2     -403.1     -259.1        0.0        0.0     0.0     0.0
"Line.645646"                 1      231.5      132.9        0.0        0.0     0.0     0.0        0.0        0.0        0.0        0.0
"Line.645646"                 2     -231.3     -132.7        0.0        0.0     0.0     0.0
"Line.692675"                 1       50.8     -658.0        0.0        0.0     0.0     0.0        0.0        0.0        0.0        0.0
"Line.692675"                 2      -49.8      658.6        0.0        0.0     0.0     0.0
"Line.671684"                 1     -282.5       63.8        0.0        0.0     0.0     0.0        0.0        0.0        0.0        0.0
"Line.671684"                 2      282.7      -63.6        0.0        0.0     0.0     0.0
"Line.684611"                 1      174.3      -30.9        0.0        0.0     0.0     0.0        0.0        0.0        0.0        0.0
"Line.684611"                 2     -174.2       31.0        0.0        0.0     0.0     0.0
"Line.684652"                 1      131.1       87.7        0.0        0.0     0.0     0.0        0.0        0.0        0.0        0.0
"Line.684652"                 2     -130.8      -87.9        0.0        0.0     0.0     0.0
"Line.671692"                 1      224.7     -503.6        0.0        0.0     0.0     0.0        0.0        0.0        0.0        0.0
"Line.671692"                 2     -224.7      503.6        0.0        0.0     0.0     0.0
"Line.633634"                 1      162.3      111.6        0.0        0.0     0.0     0.0        0.0        0.0        0.0        0.0
"Line.633634"                 2     -162.3     -111.6        0.0        0.0     0.0     0.0
"Transformer.SUB"             1      401.8      275.2        0.0        0.0     0.0     0.0        0.0        0.0        0.0        0.0
"Transformer.SUB"             2     -401.8     -275.2        0.0        0.0     0.0     0.0
"Transformer.REG1"            1      401.8      275.2        0.0        0.0     0.0     0.0        0.0        0.0        0.0        0.0
"Transformer.REG1"            2     -401.8     -275.2        0.0        0.0     0.0     0.0
"Capacitor.CAP1"              1        0.0     -678.1        0.0        0.0     0.0     0.0        0.0        0.0        0.0        0.0
"Capacitor.CAP1"              2        0.0        0.0        0.0        0.0     0.0     0.0
"Capacitor.CAP2"              1        0.0     -113.0        0.0        0.0     0.0     0.0        0.0        0.0        0.0        0.0
"Capacitor.CAP2"              2        0.0        0.0        0.0        0.0     0.0     0.0
"Load.671"                    1      116.6       67.5        0.0        0.0     0.0     0.0
"Load.645"                    1      171.6      126.2        0.0        0.0     0.0     0.0
"Load.632"                    1      172.8      127.0        0.0        0.0     0.0     0.0
"Load.633"                    1      172.7      127.0        0.0        0.0     0.0     0.0
"Load.646"                    1      231.3      132.7        0.0        0.0     0.0     0.0
"Load.692"                    1      173.9      154.4        0.0        0.0     0.0     0.0
"Load.675"                    1       49.8       19.5        0.0        0.0     0.0     0.0
"Load.611"                    1      174.2       82.0        0.0        0.0     0.0     0.0
"Load.652"                    1      130.9       87.9        0.0        0.0     0.0     0.0
"Load.670"                    1       17.3       10.2        0.0        0.0     0.0     0.0
"Load.684"                    1       11.8        6.8        0.0        0.0     0.0     0.0
"Load.680"                    1       11.8        6.7        0.0        0.0     0.0     0.0
"Load.634"                    1      162.3      111.6        0.0        0.0     0.0     0.0
"Generator.G684"              1     -600.0        0.0        0.0        0.0     0.0     0.0
"Generator.G633"              1     -600.0        0.0        0.0        0.0     0.0     0.0

Total Circuit Losses =    4.9 +j    6.8
